Version 4
SHEET 1 1800 1636
WIRE -256 240 -336 240
WIRE -208 240 -256 240
WIRE -32 240 -80 240
WIRE 64 240 48 240
WIRE 144 240 64 240
WIRE 240 240 144 240
WIRE 304 240 240 240
WIRE 400 240 304 240
WIRE -336 272 -336 240
WIRE -208 272 -336 272
WIRE 240 272 240 240
WIRE 304 272 304 240
WIRE -336 288 -336 272
WIRE -256 288 -256 240
WIRE 64 304 -80 304
WIRE 64 336 64 304
WIRE 144 336 144 320
WIRE 144 336 64 336
WIRE -256 368 -256 352
WIRE 144 368 144 336
WIRE 240 368 240 336
WIRE 304 368 304 336
WIRE -448 384 -592 384
WIRE -432 384 -448 384
WIRE -336 384 -336 368
WIRE -336 384 -352 384
WIRE -144 400 -144 320
WIRE -448 496 -448 384
WIRE -416 496 -448 496
WIRE -336 496 -336 384
WIRE -336 496 -352 496
WIRE -592 512 -592 464
FLAG -144 400 0
FLAG 144 448 0
FLAG 240 368 0
FLAG 400 320 0
FLAG 304 368 0
FLAG -592 512 0
FLAG -256 368 0
SYMBOL TLV62569P_TRANS -144 272 R0
SYMATTR InstName U4
SYMATTR SpiceLine SS=1
SYMBOL ind 64 224 R90
WINDOW 0 5 56 VBottom 2
WINDOW 3 -57 76 VTop 2
SYMATTR InstName L3
SYMATTR Value 2.2µ
SYMATTR SpiceLine Rser=0.1
SYMBOL res 128 224 R0
SYMATTR InstName R13
SYMATTR Value 100k
SYMBOL cap 256 336 R180
WINDOW 0 24 56 Left 2
WINDOW 3 24 8 Left 2
SYMATTR InstName C11
SYMATTR Value 10µF
SYMATTR SpiceLine Rser=2
SYMBOL res 384 224 R0
SYMATTR InstName R14
SYMATTR Value 60
SYMBOL cap 320 336 R180
WINDOW 0 24 56 Left 2
WINDOW 3 9 -10 Left 2
SYMATTR InstName C13
SYMATTR Value 1µF
SYMATTR SpiceLine Rser=2
SYMBOL cap 48 240 R0
WINDOW 3 -27 56 Left 2
SYMATTR Value 6.8e-12
SYMATTR InstName C14
SYMBOL res 128 352 R0
SYMATTR InstName R15
SYMATTR Value 22k
SYMBOL voltage -592 368 R0
WINDOW 123 0 0 Left 0
WINDOW 39 0 0 Left 0
WINDOW 0 -97 -8 Left 2
SYMATTR InstName V4
SYMATTR Value EXP(0 5 5e-6 200e-6 10 1e-6)
SYMBOL ind -336 368 R90
WINDOW 0 5 56 VBottom 2
WINDOW 3 32 56 VTop 2
SYMATTR InstName L7
SYMATTR Value 10nH
SYMBOL res -320 384 R180
WINDOW 0 36 76 Left 2
WINDOW 3 36 40 Left 2
SYMATTR InstName R7
SYMATTR Value 20
SYMBOL cap -352 480 R90
WINDOW 0 0 32 VBottom 2
WINDOW 3 32 32 VTop 2
SYMATTR InstName C12
SYMATTR Value 100e-12
SYMATTR SpiceLine Rser=05
SYMBOL cap -240 352 R180
WINDOW 0 24 56 Left 2
WINDOW 3 24 8 Left 2
SYMATTR InstName C15
SYMATTR Value 4.7µF
SYMATTR SpiceLine Rser=2
TEXT -184 568 Left 2 !.tran 0 100e-3 0 1e-8
TEXT -296 104 Left 2 ;Vout = 0.6 * (1+R1/R2) = 3.28
