Version 4
SHEET 1 880 680
WIRE 0 96 -128 96
WIRE 176 96 128 96
WIRE 272 96 256 96
WIRE 352 96 272 96
WIRE 448 96 352 96
WIRE 512 96 448 96
WIRE 608 96 512 96
WIRE -384 128 -528 128
WIRE -368 128 -384 128
WIRE -272 128 -288 128
WIRE -256 128 -272 128
WIRE -128 128 -128 96
WIRE -128 128 -176 128
WIRE 0 128 -128 128
WIRE 448 128 448 96
WIRE 512 128 512 96
WIRE -128 160 -128 128
WIRE 272 160 128 160
WIRE 272 192 272 160
WIRE 352 192 352 176
WIRE 352 192 272 192
WIRE 352 224 352 192
WIRE 448 224 448 192
WIRE 512 224 512 192
WIRE -384 240 -384 128
WIRE -352 240 -384 240
WIRE -272 240 -272 128
WIRE -272 240 -288 240
WIRE -528 256 -528 208
WIRE -128 256 -128 224
WIRE 64 256 64 176
FLAG 64 256 0
FLAG 352 304 0
FLAG 448 224 0
FLAG 608 176 0
FLAG 512 224 0
FLAG -528 256 0
FLAG -128 256 0
SYMBOL ind 272 80 R90
WINDOW 0 5 56 VBottom 2
WINDOW 3 -48 58 VTop 2
SYMATTR InstName L1
SYMATTR Value 2.2µH
SYMATTR SpiceLine Rser=4
SYMBOL res 336 80 R0
SYMATTR InstName R1
SYMATTR Value 100k
SYMBOL cap 464 192 R180
WINDOW 0 24 56 Left 2
WINDOW 3 24 8 Left 2
SYMATTR InstName C1
SYMATTR Value 10µF
SYMATTR SpiceLine Rser=4
SYMBOL res 592 80 R0
SYMATTR InstName R2
SYMATTR Value 30
SYMBOL cap 528 192 R180
WINDOW 0 24 56 Left 2
WINDOW 3 9 -10 Left 2
SYMATTR InstName C2
SYMATTR Value 1µF
SYMATTR SpiceLine Rser=2
SYMBOL cap 256 96 R0
WINDOW 3 -27 56 Left 2
SYMATTR Value 10e-12
SYMATTR InstName C3
SYMBOL res 336 208 R0
SYMATTR InstName R3
SYMATTR Value 100k
SYMBOL voltage -528 112 R0
WINDOW 123 0 0 Left 0
WINDOW 39 0 0 Left 0
WINDOW 0 -71 49 Left 2
SYMATTR InstName V1
SYMATTR Value EXP(0 5 5e-6 200e-6 10 1e-6)
SYMBOL ind -272 112 R90
WINDOW 0 5 56 VBottom 2
WINDOW 3 32 56 VTop 2
SYMATTR InstName L2
SYMATTR Value 10nH
SYMBOL res -272 144 R270
WINDOW 0 32 56 VTop 2
WINDOW 3 0 56 VBottom 2
SYMATTR InstName R4
SYMATTR Value 20
SYMBOL cap -288 224 R90
WINDOW 0 0 32 VBottom 2
WINDOW 3 32 32 VTop 2
SYMATTR InstName C4
SYMATTR Value 100e-12
SYMATTR SpiceLine Rser=05
SYMBOL cap -144 160 R0
SYMATTR InstName C5
SYMATTR Value 4.7µF
SYMATTR SpiceLine Rser=5
SYMBOL TLV62569P_TRANS 64 128 R0
SYMATTR InstName U2
TEXT -392 400 Left 2 !.tran 0 100e-3 0 1e-8
TEXT 32 376 Left 2 ;Vout = 0.6 * (1+R1/R2) = 1.344
