Version 4
SHEET 1 2660 2132
WIRE 240 1264 160 1264
WIRE 416 1264 320 1264
WIRE -1520 1312 -1520 1264
WIRE 320 1392 320 1344
WIRE -16 1408 -144 1408
WIRE 160 1408 160 1264
WIRE 160 1408 64 1408
WIRE 288 1408 160 1408
WIRE 416 1424 416 1264
WIRE 416 1424 352 1424
WIRE 464 1424 416 1424
WIRE 672 1424 544 1424
WIRE 288 1440 272 1440
WIRE -272 1456 -352 1456
WIRE 272 1456 272 1440
WIRE 272 1456 -192 1456
WIRE 672 1456 672 1424
WIRE -352 1488 -352 1456
WIRE 320 1488 320 1456
WIRE 672 1536 672 1520
WIRE -1520 1584 -1520 1552
WIRE -1344 1584 -1520 1584
WIRE -1200 1600 -1280 1600
WIRE -1136 1600 -1200 1600
WIRE -1520 1616 -1520 1584
WIRE -1344 1616 -1360 1616
WIRE -352 1616 -352 1568
WIRE -1360 1696 -1360 1616
WIRE -1200 1696 -1200 1600
WIRE -1200 1696 -1360 1696
WIRE -1520 1712 -1520 1696
WIRE 672 1712 672 1616
WIRE 720 1712 672 1712
WIRE 928 1712 800 1712
WIRE 672 1728 672 1712
WIRE 928 1728 928 1712
WIRE 672 1824 672 1808
WIRE 928 1824 928 1792
WIRE -1504 1984 -1504 1952
WIRE -1440 1984 -1504 1984
WIRE -1504 2016 -1504 1984
WIRE -1504 2112 -1504 2096
FLAG -1520 1312 0
FLAG -1520 1184 VBUS
FLAG -1520 1472 VBUS
FLAG -1520 1712 0
FLAG 320 1344 0
FLAG 672 1824 0
FLAG 928 1824 0
FLAG 320 1488 VBUS
FLAG -352 1616 0
FLAG -1504 1872 VBUS
FLAG -1504 2112 0
FLAG -1136 1600 VREF_BUFF
FLAG -144 1408 VREF_BUFF
FLAG -1312 1632 VBUS
FLAG -1312 1568 0
DATAFLAG 448 1424 ""
DATAFLAG 400 1424 ""
DATAFLAG 400 1424 ""
DATAFLAG 416 1376 ""
SYMBOL voltage -1520 1168 R0
WINDOW 123 0 0 Left 0
WINDOW 39 0 0 Left 0
SYMATTR InstName V4
SYMATTR Value 5
SYMBOL res -1536 1456 R0
SYMATTR InstName R7
SYMATTR Value 56k
SYMBOL res -1536 1600 R0
SYMATTR InstName R8
SYMATTR Value 9.1k
SYMBOL res 336 1248 R90
WINDOW 0 -20 95 VBottom 2
WINDOW 3 32 56 VTop 2
SYMATTR InstName R15
SYMATTR Value 100k
SYMBOL ZZZ\\Comparator\\Comparator_ST 320 1424 M180
SYMATTR SpiceModel TS7211
SYMATTR InstName U3
SYMBOL res 688 1824 R180
WINDOW 0 36 76 Left 2
WINDOW 3 36 40 Left 2
SYMATTR InstName R17
SYMATTR Value 1k
SYMBOL res 816 1696 R90
WINDOW 0 0 56 VBottom 2
WINDOW 3 32 56 VTop 2
SYMATTR InstName R18
SYMATTR Value 1k
SYMBOL cap 912 1728 R0
SYMATTR InstName C3
SYMATTR Value 10pF
SYMBOL diode 656 1456 R0
SYMATTR InstName D3
SYMBOL voltage 672 1520 R0
WINDOW 0 56 18 Left 2
WINDOW 3 24 16 Left 2
WINDOW 123 0 0 Left 0
WINDOW 39 0 0 Left 0
SYMATTR InstName V6
SYMATTR Value 2
SYMBOL voltage -352 1472 R0
WINDOW 123 0 0 Left 0
WINDOW 39 0 0 Left 0
WINDOW 3 24 44 Left 2
SYMATTR Value SINE(0.7 0.35 1)
SYMATTR InstName V7
SYMBOL res -176 1440 R90
WINDOW 0 0 56 VBottom 2
WINDOW 3 32 56 VTop 2
SYMATTR InstName R19
SYMATTR Value 4.7k
SYMBOL res -1520 1856 R0
SYMATTR InstName R1
SYMATTR Value 6.2k
SYMBOL res -1520 2000 R0
SYMATTR InstName R2
SYMATTR Value 1.2k
SYMBOL res 560 1408 R90
WINDOW 0 0 56 VBottom 2
WINDOW 3 32 56 VTop 2
SYMATTR InstName R3
SYMATTR Value 47
SYMBOL OpAmps\\ADA4661-2 -1312 1664 M180
SYMATTR InstName U4
SYMBOL res 80 1392 R90
WINDOW 0 0 56 VBottom 2
WINDOW 3 32 56 VTop 2
SYMATTR InstName R9
SYMATTR Value 3.9k
TEXT -208 -744 Left 2 !.tran 0 3 0 1e-4
TEXT -688 1328 Left 2 ;SIMPLE COMPARATOR WITH SINUSOIDAL SOURCE
TEXT -1352 1096 Left 2 ;COMPARATOR WITH LOW VOLTAGE DIVIDER
TEXT -1392 1480 Left 2 ;SIMPLE COMPARATOR WITH SINUSOIDAL SOURCE
