Version 4
SHEET 1 2660 1844
WIRE -1328 96 -1328 48
WIRE -1328 368 -1328 336
WIRE -1152 368 -1328 368
WIRE -1008 384 -1088 384
WIRE -944 384 -1008 384
WIRE -1328 400 -1328 368
WIRE -1152 400 -1168 400
WIRE -1168 480 -1168 400
WIRE -1008 480 -1008 384
WIRE -1008 480 -1168 480
WIRE -1328 496 -1328 480
WIRE -1312 768 -1312 736
WIRE -1248 768 -1312 768
WIRE -1312 800 -1312 768
WIRE -1312 896 -1312 880
WIRE 240 1264 160 1264
WIRE 416 1264 320 1264
WIRE 320 1392 320 1344
WIRE -16 1408 -144 1408
WIRE 160 1408 160 1264
WIRE 160 1408 64 1408
WIRE 288 1408 160 1408
WIRE 416 1424 416 1264
WIRE 416 1424 352 1424
WIRE 464 1424 416 1424
WIRE 672 1424 544 1424
WIRE 288 1440 272 1440
WIRE -272 1456 -352 1456
WIRE 272 1456 272 1440
WIRE 272 1456 -192 1456
WIRE 672 1456 672 1424
WIRE -352 1488 -352 1456
WIRE 320 1488 320 1456
WIRE 672 1536 672 1520
WIRE -352 1616 -352 1568
WIRE 672 1712 672 1616
WIRE 720 1712 672 1712
WIRE 928 1712 800 1712
WIRE 672 1728 672 1712
WIRE 928 1728 928 1712
WIRE 672 1824 672 1808
WIRE 928 1824 928 1792
FLAG -1328 96 0
FLAG -1328 -32 VBUS
FLAG -1328 256 VBUS
FLAG -1328 496 0
FLAG 320 1344 0
FLAG 672 1824 0
FLAG 928 1824 0
FLAG 320 1488 VBUS
FLAG -352 1616 0
FLAG -1312 656 VBUS
FLAG -1312 896 0
FLAG -944 384 VREF_BUFF
FLAG -144 1408 VREF_BUFF
FLAG -1120 416 VBUS
FLAG -1120 352 0
DATAFLAG 448 1424 ""
DATAFLAG 400 1424 ""
DATAFLAG 400 1424 ""
DATAFLAG 416 1376 ""
SYMBOL voltage -1328 -48 R0
WINDOW 123 0 0 Left 0
WINDOW 39 0 0 Left 0
SYMATTR InstName V4
SYMATTR Value 5
SYMBOL res -1344 240 R0
SYMATTR InstName R7
SYMATTR Value 56k
SYMBOL res -1344 384 R0
SYMATTR InstName R8
SYMATTR Value 9.1k
SYMBOL res 336 1248 R90
WINDOW 0 -20 95 VBottom 2
WINDOW 3 32 56 VTop 2
SYMATTR InstName R15
SYMATTR Value 100k
SYMBOL ZZZ\\Comparator\\Comparator_ST 320 1424 M180
SYMATTR SpiceModel TS7211
SYMATTR InstName U3
SYMBOL res 688 1824 R180
WINDOW 0 36 76 Left 2
WINDOW 3 36 40 Left 2
SYMATTR InstName R17
SYMATTR Value 1k
SYMBOL res 816 1696 R90
WINDOW 0 0 56 VBottom 2
WINDOW 3 32 56 VTop 2
SYMATTR InstName R18
SYMATTR Value 1k
SYMBOL cap 912 1728 R0
SYMATTR InstName C3
SYMATTR Value 10pF
SYMBOL diode 656 1456 R0
SYMATTR InstName D3
SYMBOL voltage 672 1520 R0
WINDOW 0 56 18 Left 2
WINDOW 3 24 16 Left 2
WINDOW 123 0 0 Left 0
WINDOW 39 0 0 Left 0
SYMATTR InstName V6
SYMATTR Value 2
SYMBOL voltage -352 1472 R0
WINDOW 123 0 0 Left 0
WINDOW 39 0 0 Left 0
WINDOW 3 24 44 Left 2
SYMATTR Value SINE(0.7 0.35 1)
SYMATTR InstName V7
SYMBOL res -176 1440 R90
WINDOW 0 0 56 VBottom 2
WINDOW 3 32 56 VTop 2
SYMATTR InstName R19
SYMATTR Value 4.7k
SYMBOL res -1328 640 R0
SYMATTR InstName R1
SYMATTR Value 6.2k
SYMBOL res -1328 784 R0
SYMATTR InstName R2
SYMATTR Value 1.2k
SYMBOL res 560 1408 R90
WINDOW 0 0 56 VBottom 2
WINDOW 3 32 56 VTop 2
SYMATTR InstName R3
SYMATTR Value 47
SYMBOL OpAmps\\ADA4661-2 -1120 448 M180
SYMATTR InstName U4
SYMBOL res 80 1392 R90
WINDOW 0 0 56 VBottom 2
WINDOW 3 32 56 VTop 2
SYMATTR InstName R9
SYMATTR Value 3.9k
TEXT -208 -744 Left 2 !.tran 0 3 0 1e-4
TEXT -688 1328 Left 2 ;SIMPLE COMPARATOR WITH SINUSOIDAL SOURCE
TEXT -736 -608 Left 2 ;COMPARATOR WITH LOW VOLTAGE DIVIDER
TEXT -856 176 Left 2 ;SIMPLE COMPARATOR WITH SINUSOIDAL SOURCE
