Version 4
SHEET 1 1104 1844
WIRE -272 -496 -480 -496
WIRE -480 -464 -480 -496
WIRE 176 -448 96 -448
WIRE 352 -448 256 -448
WIRE -272 -416 -272 -496
WIRE -480 -336 -480 -384
WIRE 256 -320 256 -352
WIRE -272 -304 -272 -336
WIRE -80 -304 -272 -304
WIRE 96 -304 96 -448
WIRE 96 -304 0 -304
WIRE 224 -304 96 -304
WIRE -272 -288 -272 -304
WIRE 352 -288 352 -448
WIRE 352 -288 288 -288
WIRE 608 -288 352 -288
WIRE 224 -272 208 -272
WIRE 608 -256 608 -288
WIRE 208 -224 208 -272
WIRE 208 -224 16 -224
WIRE 256 -208 256 -256
WIRE -272 -176 -272 -208
WIRE 608 -176 608 -192
WIRE 608 0 608 -96
WIRE 656 0 608 0
WIRE 864 0 736 0
WIRE 608 16 608 0
WIRE 864 16 864 0
WIRE -1328 96 -1328 48
WIRE 608 112 608 96
WIRE 864 112 864 80
WIRE -240 320 -448 320
WIRE -448 352 -448 320
WIRE -1328 368 -1328 336
WIRE -1264 368 -1328 368
WIRE 208 368 128 368
WIRE 384 368 288 368
WIRE -1328 400 -1328 368
WIRE -240 400 -240 320
WIRE -448 480 -448 432
WIRE -1328 496 -1328 480
WIRE 288 496 288 464
WIRE -240 512 -240 480
WIRE -48 512 -240 512
WIRE 128 512 128 368
WIRE 128 512 32 512
WIRE 256 512 128 512
WIRE -240 528 -240 512
WIRE 384 528 384 368
WIRE 384 528 320 528
WIRE 640 528 384 528
WIRE 256 544 112 544
WIRE 640 560 640 528
WIRE 288 608 288 560
WIRE -240 640 -240 608
WIRE 640 640 640 624
WIRE 640 816 640 720
WIRE 688 816 640 816
WIRE 896 816 768 816
WIRE 640 832 640 816
WIRE 896 832 896 816
WIRE 640 928 640 912
WIRE 896 928 896 896
WIRE 240 1264 160 1264
WIRE 416 1264 320 1264
WIRE 320 1392 320 1360
WIRE -240 1408 -320 1408
WIRE -16 1408 -160 1408
WIRE 160 1408 160 1264
WIRE 160 1408 64 1408
WIRE 288 1408 160 1408
WIRE 416 1424 416 1264
WIRE 416 1424 352 1424
WIRE 672 1424 416 1424
WIRE -320 1440 -320 1408
WIRE 288 1440 128 1440
WIRE 320 1440 288 1440
WIRE 672 1456 672 1424
WIRE 320 1504 320 1456
WIRE 672 1536 672 1520
WIRE -320 1568 -320 1520
WIRE 672 1712 672 1616
WIRE 720 1712 672 1712
WIRE 928 1712 800 1712
WIRE 672 1728 672 1712
WIRE 928 1728 928 1712
WIRE 672 1824 672 1808
WIRE 928 1824 928 1792
FLAG 256 -352 0
FLAG 608 112 0
FLAG 864 112 0
FLAG -1328 96 0
FLAG -1328 -32 VBUS
FLAG 256 -208 VBUS
FLAG -272 -176 0
FLAG -480 -336 0
FLAG -1328 256 VBUS
FLAG -1328 496 0
FLAG -1264 368 Vref
FLAG 16 -224 Vref
FLAG 288 464 0
FLAG 640 928 0
FLAG 896 928 0
FLAG 288 608 VBUS
FLAG -240 640 0
FLAG -448 480 0
FLAG 112 544 Vref
FLAG 320 1360 0
FLAG 672 1824 0
FLAG 928 1824 0
FLAG 320 1504 VBUS
FLAG -320 1568 0
FLAG 128 1440 Vref
SYMBOL res 272 -464 R90
WINDOW 0 0 56 VBottom 2
WINDOW 3 32 56 VTop 2
SYMATTR InstName R2
SYMATTR Value 2e6
SYMBOL res 16 -320 R90
WINDOW 0 0 56 VBottom 2
WINDOW 3 32 56 VTop 2
SYMATTR InstName R4
SYMATTR Value 100k
SYMBOL ZZZ\\Comparator\\Comparator_ST 256 -288 M180
SYMATTR SpiceModel TS7211
SYMATTR InstName U2
SYMBOL res 624 112 R180
WINDOW 0 36 76 Left 2
WINDOW 3 36 40 Left 2
SYMATTR InstName R1
SYMATTR Value 1k
SYMBOL res 752 -16 R90
WINDOW 0 0 56 VBottom 2
WINDOW 3 32 56 VTop 2
SYMATTR InstName R5
SYMATTR Value 1k
SYMBOL cap 848 16 R0
SYMATTR InstName C1
SYMATTR Value 10pF
SYMBOL voltage -1328 -48 R0
WINDOW 123 0 0 Left 0
WINDOW 39 0 0 Left 0
SYMATTR InstName V4
SYMATTR Value 5
SYMBOL diode 592 -256 R0
SYMATTR InstName D1
SYMBOL voltage 608 -192 R0
WINDOW 0 56 18 Left 2
WINDOW 3 24 16 Left 2
WINDOW 123 0 0 Left 0
WINDOW 39 0 0 Left 0
SYMATTR InstName V2
SYMATTR Value 2
SYMBOL res -288 -432 R0
SYMATTR InstName R3
SYMATTR Value 51k
SYMBOL res -288 -304 R0
SYMATTR InstName R6
SYMATTR Value 5.1k
SYMBOL voltage -480 -480 R0
WINDOW 123 0 0 Left 0
WINDOW 39 0 0 Left 0
WINDOW 3 24 44 Left 2
SYMATTR Value SINE(5 1 20)
SYMATTR InstName V1
SYMBOL res -1344 240 R0
SYMATTR InstName R7
SYMATTR Value 6.2k
SYMBOL res -1344 384 R0
SYMATTR InstName R8
SYMATTR Value 1k
SYMBOL res 304 352 R90
WINDOW 0 0 56 VBottom 2
WINDOW 3 32 56 VTop 2
SYMATTR InstName R9
SYMATTR Value 2e6
SYMBOL res 48 496 R90
WINDOW 0 0 56 VBottom 2
WINDOW 3 32 56 VTop 2
SYMATTR InstName R10
SYMATTR Value 100k
SYMBOL ZZZ\\Comparator\\Comparator_ST 288 528 M180
SYMATTR SpiceModel TS7211
SYMATTR InstName U1
SYMBOL res 656 928 R180
WINDOW 0 36 76 Left 2
WINDOW 3 36 40 Left 2
SYMATTR InstName R11
SYMATTR Value 1k
SYMBOL res 784 800 R90
WINDOW 0 0 56 VBottom 2
WINDOW 3 32 56 VTop 2
SYMATTR InstName R12
SYMATTR Value 1k
SYMBOL cap 880 832 R0
SYMATTR InstName C2
SYMATTR Value 10pF
SYMBOL diode 624 560 R0
SYMATTR InstName D2
SYMBOL voltage 640 624 R0
WINDOW 0 56 18 Left 2
WINDOW 3 24 16 Left 2
WINDOW 123 0 0 Left 0
WINDOW 39 0 0 Left 0
SYMATTR InstName V3
SYMATTR Value 2
SYMBOL res -256 384 R0
SYMATTR InstName R13
SYMATTR Value 21k
SYMBOL res -256 512 R0
SYMATTR InstName R14
SYMATTR Value 5.1k
SYMBOL voltage -448 336 R0
WINDOW 123 0 0 Left 0
WINDOW 39 0 0 Left 0
WINDOW 3 24 44 Left 2
SYMATTR Value SINE(5 1 20)
SYMATTR InstName V5
SYMBOL res 336 1248 R90
WINDOW 0 0 56 VBottom 2
WINDOW 3 32 56 VTop 2
SYMATTR InstName R15
SYMATTR Value 2e6
SYMBOL res 80 1392 R90
WINDOW 0 0 56 VBottom 2
WINDOW 3 32 56 VTop 2
SYMATTR InstName R16
SYMATTR Value 100k
SYMBOL ZZZ\\Comparator\\Comparator_ST 320 1424 M180
SYMATTR SpiceModel TS7211
SYMATTR InstName U3
SYMBOL res 688 1824 R180
WINDOW 0 36 76 Left 2
WINDOW 3 36 40 Left 2
SYMATTR InstName R17
SYMATTR Value 1k
SYMBOL res 816 1696 R90
WINDOW 0 0 56 VBottom 2
WINDOW 3 32 56 VTop 2
SYMATTR InstName R18
SYMATTR Value 1k
SYMBOL cap 912 1728 R0
SYMATTR InstName C3
SYMATTR Value 10pF
SYMBOL diode 656 1456 R0
SYMATTR InstName D3
SYMBOL voltage 672 1520 R0
WINDOW 0 56 18 Left 2
WINDOW 3 24 16 Left 2
WINDOW 123 0 0 Left 0
WINDOW 39 0 0 Left 0
SYMATTR InstName V6
SYMATTR Value 2
SYMBOL voltage -320 1424 R0
WINDOW 123 0 0 Left 0
WINDOW 39 0 0 Left 0
WINDOW 3 24 44 Left 2
SYMATTR Value SINE(0.7 0.35 20)
SYMATTR InstName V7
SYMBOL res -144 1392 R90
WINDOW 0 0 56 VBottom 2
WINDOW 3 32 56 VTop 2
SYMATTR InstName R19
SYMATTR Value 4.7k
TEXT -208 -744 Left 2 !.tran 0 1 0 1e-4
TEXT -688 1328 Left 2 ;SIMPLE COMPARATOR WITH SINUSOIDAL SOURCE
TEXT -744 232 Left 2 ;COMPARATOR WITH HIGH VOLTAGE DIVIDER
TEXT -736 -608 Left 2 ;COMPARATOR WITH LOW VOLTAGE DIVIDER
