Version 4
SHEET 1 2172 1844
WIRE 816 -496 736 -496
WIRE 992 -496 896 -496
WIRE 384 -464 304 -464
WIRE 496 -464 464 -464
WIRE -848 -448 -1024 -448
WIRE 128 -432 16 -432
WIRE 272 -432 208 -432
WIRE -1024 -416 -1024 -448
WIRE 368 -384 368 -400
WIRE 272 -368 272 -432
WIRE 304 -368 304 -464
WIRE 304 -368 272 -368
WIRE 336 -368 304 -368
WIRE 896 -368 896 -400
WIRE 496 -352 496 -464
WIRE 496 -352 400 -352
WIRE 576 -352 496 -352
WIRE 736 -352 736 -496
WIRE 736 -352 656 -352
WIRE 864 -352 736 -352
WIRE 336 -336 272 -336
WIRE 992 -336 992 -496
WIRE 992 -336 928 -336
WIRE 1088 -336 992 -336
WIRE 1184 -336 1088 -336
WIRE 1392 -336 1264 -336
WIRE 864 -320 784 -320
WIRE 1392 -320 1392 -336
WIRE -1024 -288 -1024 -336
WIRE 128 -272 16 -272
WIRE 272 -272 272 -336
WIRE 272 -272 208 -272
WIRE 368 -272 368 -320
WIRE 272 -240 272 -272
WIRE 896 -240 896 -304
WIRE 1392 -224 1392 -256
WIRE 1088 -176 1088 -256
WIRE -1024 -160 -1024 -208
WIRE 272 -144 272 -160
WIRE -832 48 -1008 48
WIRE -1008 80 -1008 48
WIRE -64 128 -64 96
WIRE -320 176 -320 96
WIRE -1008 208 -1008 160
WIRE -64 240 -64 208
WIRE 144 240 -64 240
WIRE -64 256 -64 240
WIRE -1008 336 -1008 288
WIRE -320 368 -320 256
WIRE -64 368 -64 336
FLAG 896 -400 0
FLAG 1392 -224 0
FLAG -320 368 0
FLAG -320 96 VBUS
FLAG 896 -240 VBUS
FLAG -848 -448 VCC1
FLAG -1008 336 0
FLAG -832 48 VCC2
FLAG 16 -432 VCC1
FLAG 16 -272 VCC2
FLAG -1024 -160 0
FLAG 272 -144 0
FLAG 1088 -176 0
FLAG 368 -400 VBUS
FLAG 368 -272 0
FLAG -64 368 0
FLAG -64 96 VBUS
FLAG 144 240 Vref
FLAG 784 -320 Vref
SYMBOL res 912 -512 R90
WINDOW 0 0 56 VBottom 2
WINDOW 3 32 56 VTop 2
SYMATTR InstName R2
SYMATTR Value {R2}
SYMBOL res 672 -368 R90
WINDOW 0 0 56 VBottom 2
WINDOW 3 32 56 VTop 2
SYMATTR InstName R4
SYMATTR Value {R1}
SYMBOL ZZZ\\Comparator\\Comparator_ST 896 -336 M180
SYMATTR SpiceModel TS7211
SYMATTR InstName U2
SYMBOL res 1280 -352 R90
WINDOW 0 0 56 VBottom 2
WINDOW 3 32 56 VTop 2
SYMATTR InstName R5
SYMATTR Value 1k
SYMBOL cap 1376 -320 R0
SYMATTR InstName C1
SYMATTR Value 10pF
SYMBOL voltage -320 160 R0
WINDOW 123 0 0 Left 0
WINDOW 39 0 0 Left 0
SYMATTR InstName V4
SYMATTR Value 5
SYMBOL voltage -1008 192 R0
WINDOW 123 0 0 Left 0
WINDOW 39 0 0 Left 0
WINDOW 3 24 44 Left 2
SYMATTR Value SINE(0.225 0.225 10 0 0 180)
SYMATTR InstName V3
SYMBOL res -1024 64 R0
SYMATTR InstName R7
SYMATTR Value 4.6k
SYMBOL voltage -1024 -304 R0
WINDOW 123 0 0 Left 0
WINDOW 39 0 0 Left 0
WINDOW 3 24 44 Left 2
SYMATTR Value SINE(0.225 0.225 10 0 0 0)
SYMATTR InstName V1
SYMBOL res -1040 -432 R0
SYMATTR InstName R1
SYMATTR Value 4.6k
SYMBOL res 224 -448 R90
WINDOW 0 0 56 VBottom 2
WINDOW 3 32 43 VTop 2
SYMATTR InstName R3
SYMATTR Value 1e6
SYMBOL res 224 -288 R90
WINDOW 0 0 56 VBottom 2
WINDOW 3 32 56 VTop 2
SYMATTR InstName R6
SYMATTR Value 1e6
SYMBOL res 480 -480 R90
WINDOW 0 0 56 VBottom 2
WINDOW 3 32 43 VTop 2
SYMATTR InstName R8
SYMATTR Value 1e6
SYMBOL res 288 -144 R180
WINDOW 0 36 76 Left 2
WINDOW 3 36 40 Left 2
SYMATTR InstName R9
SYMATTR Value 1e6
SYMBOL res 1072 -352 R0
SYMATTR InstName R10
SYMATTR Value 1k
SYMBOL OpAmps\\ADA4661-2 368 -416 R0
SYMATTR InstName U1
SYMBOL res -80 112 R0
SYMATTR InstName R11
SYMATTR Value 9.1k
SYMBOL res -80 240 R0
SYMATTR InstName R12
SYMATTR Value 560
TEXT -1056 -928 Left 2 !.tran 0 3 0 1e-4
TEXT -824 -80 Left 2 ;COMPARATOR WITH HIGH VOLTAGE DIVIDER
TEXT -736 -608 Left 2 ;COMPARATOR WITH LOW VOLTAGE DIVIDER
TEXT 1112 -576 Left 2 !.param R1=10k R2=240k
