Version 4
SHEET 1 880 748
WIRE 128 96 16 96
WIRE 176 96 128 96
WIRE 480 96 272 96
WIRE 128 128 128 96
WIRE 480 128 480 96
WIRE 16 144 16 96
WIRE 192 224 192 144
WIRE 16 272 16 224
WIRE 128 272 128 208
WIRE 480 272 480 208
WIRE 192 320 192 304
WIRE 112 528 16 528
WIRE 176 528 112 528
WIRE 480 528 272 528
WIRE 480 560 480 528
WIRE 16 576 16 528
WIRE 112 576 112 528
WIRE 192 608 192 576
WIRE 16 704 16 656
WIRE 112 704 112 656
WIRE 192 704 192 688
WIRE 480 704 480 640
FLAG 192 320 0
FLAG 16 272 0
FLAG 480 272 0
FLAG 192 704 0
FLAG 16 704 0
FLAG 480 704 0
FLAG 112 704 0
FLAG 128 272 0
SYMBOL ZZZ\\MOS\\AO3419 272 144 M270
SYMATTR InstName U2
SYMBOL res 176 208 R0
SYMATTR InstName R1
SYMATTR Value 22k
SYMBOL voltage 16 128 R0
WINDOW 123 0 0 Left 0
WINDOW 39 0 0 Left 0
SYMATTR InstName V1
SYMATTR Value EXP(0 5 0 1e-3 100 100)
SYMBOL res 464 112 R0
SYMATTR InstName R2
SYMATTR Value 2
SYMBOL ZZZ\\MOS\\AO3419 272 576 M270
SYMATTR InstName U1
SYMBOL res 176 592 R0
SYMATTR InstName R3
SYMATTR Value 22k
SYMBOL voltage 16 560 R0
WINDOW 3 69 173 Left 2
WINDOW 123 0 0 Left 0
WINDOW 39 0 0 Left 0
SYMATTR Value EXP(0 -5 0 1e-3 100 100)
SYMATTR InstName V2
SYMBOL res 464 544 R0
SYMATTR InstName R4
SYMATTR Value 2
SYMBOL res 96 560 R0
SYMATTR InstName R5
SYMATTR Value 10k
SYMBOL res 112 112 R0
SYMATTR InstName R6
SYMATTR Value 10k
TEXT -16 296 Left 2 !.tran 0 1 0
