Version 4
SHEET 1 1060 680
WIRE 608 -256 32 -256
WIRE 688 -256 608 -256
WIRE 512 -192 304 -192
WIRE 832 -192 512 -192
WIRE 128 -160 80 -160
WIRE 128 -144 128 -160
WIRE 400 -144 352 -144
WIRE 32 -128 32 -256
WIRE 80 -128 80 -160
WIRE 304 -128 304 -192
WIRE 352 -128 352 -144
WIRE 400 -128 400 -144
WIRE 16 -80 -352 -80
WIRE 144 -80 96 -80
WIRE 288 -80 208 -80
WIRE 432 -80 368 -80
WIRE 432 -48 432 -80
WIRE 688 48 688 -256
WIRE 832 48 832 -192
WIRE 208 80 208 -80
WIRE 208 80 128 80
WIRE 432 80 432 32
WIRE 432 80 208 80
WIRE 128 128 128 80
WIRE 432 160 432 80
WIRE 16 272 -400 272
WIRE 144 272 96 272
WIRE 208 272 208 80
WIRE 288 272 208 272
WIRE 432 272 432 240
WIRE 432 272 368 272
WIRE 80 352 80 320
WIRE 128 352 128 336
WIRE 128 352 80 352
WIRE 304 352 304 320
WIRE 512 352 512 -192
WIRE 512 352 304 352
WIRE 32 400 32 320
WIRE 608 400 608 -256
WIRE 608 400 32 400
FLAG 128 -144 0
FLAG 128 128 0
FLAG 128 336 0
FLAG 688 128 0
FLAG 832 128 0
FLAG 400 -128 0
FLAG 352 320 0
FLAG -352 -80 AIN+
FLAG -400 272 AIN-
SYMBOL sw 112 272 M270
SYMATTR InstName S1
SYMBOL sw 112 -80 R90
SYMATTR InstName S2
SYMBOL voltage 688 32 R0
SYMATTR InstName V1
SYMBOL cap 208 256 R90
WINDOW 0 0 32 VBottom 2
WINDOW 3 32 32 VTop 2
SYMATTR InstName C1
SYMATTR Value {C_IN}
SYMBOL cap 208 -96 R90
WINDOW 0 0 32 VBottom 2
WINDOW 3 32 32 VTop 2
SYMATTR InstName C2
SYMATTR Value {C_IN}
SYMBOL sw 384 -80 R90
SYMATTR InstName S4
SYMATTR Value 50
SYMBOL res 448 48 R180
WINDOW 0 36 76 Left 2
WINDOW 3 36 40 Left 2
SYMATTR InstName R2
SYMATTR Value 1
SYMBOL sw 384 272 M270
SYMATTR InstName S3
SYMATTR Value 50
SYMBOL res 448 144 M0
SYMATTR InstName R1
SYMATTR Value 1
SYMBOL voltage 832 32 R0
SYMATTR InstName V2
TEXT -368 -344 Left 2 !.param C_IN 15e-9
TEXT -368 616 Left 2 !.tran 0 1e-6 0 1e-9
RECTANGLE Normal 1024 592 -112 -448 2
