Version 4
SHEET 1 1760 680
WIRE 64 112 -64 112
WIRE 240 112 192 112
WIRE 336 112 320 112
WIRE 416 112 336 112
WIRE 512 112 416 112
WIRE 576 112 512 112
WIRE 672 112 576 112
WIRE -320 144 -464 144
WIRE -304 144 -320 144
WIRE -208 144 -224 144
WIRE -192 144 -208 144
WIRE -64 144 -64 112
WIRE -64 144 -112 144
WIRE 64 144 -64 144
WIRE 512 144 512 112
WIRE 576 144 576 112
WIRE -64 176 -64 144
WIRE 336 176 192 176
WIRE 336 208 336 176
WIRE 416 208 416 192
WIRE 416 208 336 208
WIRE 416 240 416 208
WIRE 512 240 512 208
WIRE 576 240 576 208
WIRE -320 256 -320 144
WIRE -288 256 -320 256
WIRE -208 256 -208 144
WIRE -208 256 -224 256
WIRE -464 272 -464 224
WIRE -64 272 -64 240
WIRE 128 272 128 192
FLAG 128 272 0
FLAG 416 320 0
FLAG 512 240 0
FLAG 672 192 0
FLAG 576 240 0
FLAG -464 272 0
FLAG -64 272 0
SYMBOL TLV62569P_TRANS 128 144 R0
WINDOW 3 130 75 Top 2
SYMATTR InstName U1
SYMBOL ind 336 96 R90
WINDOW 0 5 56 VBottom 2
WINDOW 3 -48 58 VTop 2
SYMATTR InstName L1
SYMATTR Value 2.2µ
SYMATTR SpiceLine Rser=30e-3
SYMBOL res 400 96 R0
SYMATTR InstName R1
SYMATTR Value 100e3
SYMBOL cap 528 208 R180
WINDOW 0 24 56 Left 2
WINDOW 3 24 8 Left 2
SYMATTR InstName C1
SYMATTR Value 10µF
SYMATTR SpiceLine Rser=2
SYMBOL res 656 96 R0
SYMATTR InstName R2
SYMATTR Value 30
SYMBOL cap 592 208 R180
WINDOW 0 24 56 Left 2
WINDOW 3 9 -10 Left 2
SYMATTR InstName C2
SYMATTR Value 10µF
SYMATTR SpiceLine Rser=2
SYMBOL cap 320 112 R0
WINDOW 3 -27 56 Left 2
SYMATTR Value 6.8e-12
SYMATTR InstName C3
SYMBOL res 400 224 R0
SYMATTR InstName R3
SYMATTR Value 100e3
SYMBOL voltage -464 128 R0
WINDOW 123 0 0 Left 0
WINDOW 39 0 0 Left 0
WINDOW 0 -71 49 Left 2
SYMATTR InstName V1
SYMATTR Value EXP(0 5 5e-6 200e-6 10 1e-6)
SYMBOL ind -208 128 R90
WINDOW 0 5 56 VBottom 2
WINDOW 3 32 56 VTop 2
SYMATTR InstName L2
SYMATTR Value 10nH
SYMBOL res -208 160 R270
WINDOW 0 32 56 VTop 2
WINDOW 3 0 56 VBottom 2
SYMATTR InstName R4
SYMATTR Value 20
SYMBOL cap -224 240 R90
WINDOW 0 0 32 VBottom 2
WINDOW 3 32 32 VTop 2
SYMATTR InstName C4
SYMATTR Value 100e-12
SYMATTR SpiceLine Rser=05
SYMBOL cap -80 176 R0
SYMATTR InstName C5
SYMATTR Value 4.7µF
SYMATTR SpiceLine Rser=2
