Version 4
SHEET 1 1760 680
WIRE 304 144 176 144
WIRE 176 256 176 224
WIRE 304 256 304 224
WIRE 304 256 176 256
WIRE 304 272 304 256
FLAG 304 272 0
SYMBOL voltage 176 128 R0
WINDOW 3 -277 104 Left 2
WINDOW 123 0 0 Left 0
WINDOW 39 0 0 Left 0
SYMATTR InstName V1
SYMATTR Value EXP(0 5 5e-6 5e-6 10 1e-6)
SYMBOL res 288 128 R0
SYMATTR InstName R1
SYMATTR Value 1e3
TEXT 136 296 Left 2 !.tran 0 5e-5 0
