Version 4
SHEET 1 1760 680
WIRE 48 -384 0 -384
WIRE 528 -384 448 -384
WIRE -48 -80 -352 -80
WIRE 16 -80 -48 -80
WIRE 368 -80 96 -80
WIRE 496 -80 496 -160
WIRE 496 -80 368 -80
WIRE -1360 -48 -1440 -48
WIRE 368 64 368 -80
WIRE -1360 96 -1360 -48
WIRE -48 272 -368 272
WIRE 16 272 -48 272
WIRE 368 272 368 144
WIRE 368 272 96 272
WIRE 512 272 368 272
WIRE -1360 304 -1360 176
WIRE -1360 304 -1440 304
WIRE 512 352 512 272
FLAG -352 -80 AIN+
FLAG -368 272 AIN-
FLAG -48 336 0
FLAG -48 -16 0
FLAG 80 -128 0
FLAG 80 320 0
FLAG 32 -128 V_IN_SW
FLAG 32 320 V_IN_SW
FLAG 128 -384 0
FLAG 0 -384 V_IN_SW
FLAG 608 -384 0
FLAG 448 -384 V_SHA_SW
FLAG 320 80 0
FLAG 320 128 V_SHA_SW
FLAG 560 -160 0
FLAG 576 352 0
FLAG -1440 -48 AIN+
FLAG -1440 304 AIN-
SYMBOL sw 112 272 M270
SYMATTR InstName S1
SYMATTR Value SW1
SYMBOL sw 112 -80 R90
SYMATTR InstName S2
SYMATTR Value SW1
SYMBOL voltage 32 -384 R270
WINDOW 0 32 56 VTop 2
WINDOW 3 -117 -178 VTop 2
WINDOW 123 0 0 Left 0
WINDOW 39 0 0 Left 0
SYMATTR InstName V1
SYMATTR Value PULSE(0 3.3 0 2.14e-9 2.14e-9 10e-9 28.57e-9 1e6)
SYMBOL cap -32 336 R180
WINDOW 0 24 56 Left 2
WINDOW 3 24 8 Left 2
SYMATTR InstName C1
SYMATTR Value {C_P}
SYMBOL cap -32 -16 R180
WINDOW 0 24 56 Left 2
WINDOW 3 24 8 Left 2
SYMATTR InstName C2
SYMATTR Value {C_P}
SYMBOL voltage 512 -384 R270
WINDOW 0 32 56 VTop 2
WINDOW 3 -32 56 VBottom 2
WINDOW 123 0 0 Left 0
WINDOW 39 0 0 Left 0
SYMATTR InstName V2
SYMATTR Value PULSE(3.3 0 0 2.14e-9 2.14e-9 10e-9 28.57e-9 1e6)
SYMBOL sw 368 48 R0
SYMATTR InstName S3
SYMATTR Value SW1
SYMBOL cap 560 -176 R90
WINDOW 0 0 32 VBottom 2
WINDOW 3 32 32 VTop 2
SYMATTR InstName C3
SYMATTR Value {C_H}
SYMBOL cap 576 336 R90
WINDOW 0 0 32 VBottom 2
WINDOW 3 32 32 VTop 2
SYMATTR InstName C4
SYMATTR Value {C_H}
SYMBOL voltage -1360 80 R0
WINDOW 123 0 0 Left 0
WINDOW 39 0 0 Left 0
SYMATTR InstName V3
SYMATTR Value SINE(0 1.5 1e6 0 0 0 1e6)
TEXT -24 -560 Left 2 !.param C_P=5e-9 C_H=5e-9 t_rf=2.14e-9 tch=10e-9
TEXT -368 616 Left 2 !.tran 0 1e-6 0 1e-10
TEXT -848 -648 Left 2 ;CLK_LOW:\n- SW1, SW2: closed, SW3: open\n- Ch is charged\nCLK LOW->HIGH:\n- SW1, SW2: opened, SW3: closed\n- SHA in HOLD mode\na few moments later\n- SW3 closed\n- Amplifier output == CH voltage
TEXT 1200 -16 Left 2 !.model SW1 SW(Ron=1 Roff=1e9 Vt=1.5 Vh=0)
RECTANGLE Normal 1024 592 -112 -448 2
