Version 4
SHEET 1 1800 1236
WIRE 336 -704 -176 -704
WIRE -976 -672 -1488 -672
WIRE -64 -656 -128 -656
WIRE -1376 -624 -1440 -624
WIRE -176 -624 -176 -704
WIRE -64 -624 -176 -624
WIRE 160 -624 64 -624
WIRE 336 -624 240 -624
WIRE 432 -624 336 -624
WIRE 528 -624 432 -624
WIRE 432 -608 432 -624
WIRE -1488 -592 -1488 -672
WIRE -1376 -592 -1488 -592
WIRE -1152 -592 -1248 -592
WIRE -976 -592 -1072 -592
WIRE -880 -592 -976 -592
WIRE -784 -592 -880 -592
WIRE -64 -592 -96 -592
WIRE 128 -592 64 -592
WIRE 208 -592 128 -592
WIRE -880 -576 -880 -592
WIRE -1376 -560 -1408 -560
WIRE -1184 -560 -1248 -560
WIRE -1104 -560 -1184 -560
WIRE 432 -544 432 -560
WIRE -880 -512 -880 -528
WIRE -128 -512 -128 -656
WIRE -16 -512 -128 -512
WIRE -1440 -480 -1440 -624
WIRE -1328 -480 -1440 -480
WIRE -16 -464 -16 -512
WIRE 208 -464 208 -592
WIRE 208 -464 -16 -464
WIRE -1328 -432 -1328 -480
WIRE -1104 -432 -1104 -560
WIRE -1104 -432 -1328 -432
WIRE 208 -256 208 -464
WIRE 224 -256 208 -256
WIRE 320 -256 304 -256
WIRE 432 -256 320 -256
WIRE 320 -240 320 -256
WIRE 432 -240 432 -256
WIRE -1104 -224 -1104 -432
WIRE -992 -224 -1104 -224
WIRE 320 -144 320 -160
WIRE 432 -144 432 -176
WIRE 432 -144 320 -144
WIRE -992 -112 -992 -224
WIRE 320 -48 320 -64
WIRE -992 -16 -992 -32
WIRE 288 560 -224 560
WIRE -112 608 -176 608
WIRE -224 640 -224 560
WIRE -112 640 -224 640
WIRE 112 640 16 640
WIRE 288 640 192 640
WIRE 384 640 288 640
WIRE 480 640 384 640
WIRE 384 656 384 640
WIRE -112 672 -144 672
WIRE 80 672 16 672
WIRE 160 672 80 672
WIRE 384 720 384 704
WIRE -176 752 -176 608
WIRE -64 752 -176 752
WIRE -64 800 -64 752
WIRE 160 800 160 672
WIRE 160 800 -64 800
WIRE 160 1008 160 800
WIRE 176 1008 160 1008
WIRE 272 1008 256 1008
WIRE 384 1008 272 1008
WIRE 272 1024 272 1008
WIRE 384 1024 384 1008
WIRE 272 1120 272 1104
WIRE 384 1120 384 1088
WIRE 384 1120 272 1120
WIRE 272 1216 272 1200
FLAG 288 480 0
FLAG 384 720 0
FLAG 480 720 0
FLAG -144 672 0
FLAG 80 736 0
FLAG 272 1216 0
FLAG 336 -784 0
FLAG 432 -544 0
FLAG 528 -544 0
FLAG -96 -592 0
FLAG 128 -528 0
FLAG 320 -48 0
FLAG -976 -752 0
FLAG -880 -512 0
FLAG -784 -512 0
FLAG -1408 -560 0
FLAG -1184 -496 0
FLAG -992 -16 0
SYMBOL ind 208 624 R90
WINDOW 0 5 56 VBottom 2
WINDOW 3 34 -24 VTop 2
SYMATTR InstName L2
SYMATTR Value 2.2µH
SYMATTR SpiceLine Rser=2
SYMBOL res 272 544 R0
SYMATTR InstName R4
SYMATTR Value 100e3
SYMBOL res 272 464 R0
SYMATTR InstName R5
SYMATTR Value 100e3
SYMBOL cap 400 720 R180
WINDOW 0 24 56 Left 2
WINDOW 3 24 8 Left 2
SYMATTR InstName C4
SYMATTR Value 10µF
SYMATTR SpiceLine Rser=2
SYMBOL res 464 624 R0
SYMATTR InstName R6
SYMATTR Value 50
SYMBOL TLV62569P_SS -48 640 R0
WINDOW 3 -356 62 Top 2
SYMATTR InstName U3
SYMBOL cap 64 672 R0
SYMATTR InstName C1
SYMATTR Value 4.7µF
SYMATTR SpiceLine Rser=2
SYMBOL voltage 272 1104 R0
WINDOW 123 0 0 Left 0
WINDOW 39 0 0 Left 0
SYMATTR InstName V1
SYMATTR Value EXP(0 5 5e-6 200e-6 10 1e-6)
SYMBOL ind 256 1008 R0
SYMATTR InstName L4
SYMATTR Value 10nH
SYMBOL res 272 992 R90
WINDOW 0 0 56 VBottom 2
WINDOW 3 32 56 VTop 2
SYMATTR InstName R8
SYMATTR Value 20
SYMBOL cap 368 1024 R0
SYMATTR InstName C6
SYMATTR Value 100e-12
SYMATTR SpiceLine Rser=05
SYMBOL ind 256 -640 R90
WINDOW 0 5 56 VBottom 2
WINDOW 3 34 -24 VTop 2
SYMATTR InstName L5
SYMATTR Value 2.2µH
SYMATTR SpiceLine Rser=4
SYMBOL res 320 -720 R0
SYMATTR InstName R9
SYMATTR Value 100e3
SYMBOL res 320 -800 R0
SYMATTR InstName R10
SYMATTR Value 100e3
SYMBOL cap 448 -544 R180
WINDOW 0 24 56 Left 2
WINDOW 3 24 8 Left 2
SYMATTR InstName C7
SYMATTR Value 10µF
SYMATTR SpiceLine Rser=4
SYMBOL res 512 -640 R0
SYMATTR InstName R11
SYMATTR Value 100
SYMBOL TLV62569P_SS 0 -624 R0
WINDOW 3 -356 62 Top 2
SYMATTR InstName U2
SYMBOL cap 112 -592 R0
SYMATTR InstName C8
SYMATTR Value 4.7µF
SYMATTR SpiceLine Rser=2
SYMBOL voltage 320 -160 R0
WINDOW 123 0 0 Left 0
WINDOW 39 0 0 Left 0
SYMATTR InstName V3
SYMATTR Value EXP(0 5 5e-6 200e-6 10 1e-6)
SYMBOL ind 304 -256 R0
SYMATTR InstName L6
SYMATTR Value 10nH
SYMBOL res 320 -272 R90
WINDOW 0 0 56 VBottom 2
WINDOW 3 32 56 VTop 2
SYMATTR InstName R12
SYMATTR Value 20
SYMBOL cap 416 -240 R0
SYMATTR InstName C9
SYMATTR Value 100e-12
SYMATTR SpiceLine Rser=05
SYMBOL ind -1056 -608 R90
WINDOW 0 5 56 VBottom 2
WINDOW 3 34 -24 VTop 2
SYMATTR InstName L1
SYMATTR Value 2.2µH
SYMATTR SpiceLine Rser=4
SYMBOL res -992 -688 R0
SYMATTR InstName R1
SYMATTR Value 100e3
SYMBOL res -992 -768 R0
SYMATTR InstName R2
SYMATTR Value 100e3
SYMBOL cap -864 -512 R180
WINDOW 0 24 56 Left 2
WINDOW 3 24 8 Left 2
SYMATTR InstName C2
SYMATTR Value 10µF
SYMATTR SpiceLine Rser=4
SYMBOL res -800 -608 R0
SYMATTR InstName R3
SYMATTR Value 100
SYMBOL TLV62569P_SS -1312 -592 R0
WINDOW 3 -356 62 Top 2
SYMATTR InstName U1
SYMBOL cap -1200 -560 R0
SYMATTR InstName C3
SYMATTR Value 4.7µF
SYMATTR SpiceLine Rser=2
SYMBOL voltage -992 -128 R0
WINDOW 123 0 0 Left 0
WINDOW 39 0 0 Left 0
SYMATTR InstName V2
SYMATTR Value EXP(0 5 5e-6 200e-6 10 1e-6)
TEXT -224 776 Left 2 !.tran 0 100e-3 0 1e-8
TEXT -176 -488 Left 2 ;.tran 0 100e-3 0 1e-8
TEXT -1488 -456 Left 2 ;.tran 0 100e-3 0 1e-8
