Version 4
SHEET 1 1972 680
WIRE 928 16 928 -32
WIRE 176 32 16 32
WIRE 880 96 752 96
WIRE 560 128 512 128
WIRE 176 144 176 32
WIRE 384 144 256 144
WIRE 672 160 512 160
WIRE 32 176 -128 176
WIRE 384 176 112 176
WIRE -128 192 -128 176
WIRE 752 192 752 176
WIRE 752 192 512 192
WIRE 928 192 928 112
WIRE 1152 192 928 192
WIRE 1280 192 1232 192
WIRE 1408 192 1360 192
WIRE 1616 192 1472 192
WIRE 384 208 240 208
WIRE 672 224 512 224
WIRE 384 240 336 240
WIRE 672 256 512 256
WIRE 928 256 928 192
WIRE 1616 272 1616 192
WIRE 1152 288 1152 192
WIRE 1280 288 1152 288
WIRE 1472 288 1472 192
WIRE 1472 288 1344 288
WIRE 240 336 240 208
WIRE 336 336 336 240
WIRE 880 336 672 336
WIRE 928 416 928 352
WIRE 240 448 240 416
WIRE 336 448 336 416
FLAG 560 128 0
FLAG 928 416 0
FLAG 928 -112 0
FLAG 16 112 0
FLAG -128 272 0
FLAG 240 448 0
FLAG 336 448 0
FLAG 1616 272 0
SYMBOL res 128 160 R90
WINDOW 0 0 56 VBottom 2
WINDOW 3 32 56 VTop 2
SYMATTR InstName R1
SYMATTR Value {Rin_H}
SYMBOL res 272 128 R90
WINDOW 0 0 56 VBottom 2
WINDOW 3 32 56 VTop 2
SYMATTR InstName R2
SYMATTR Value {Rin_L}
SYMBOL UCC27282 448 192 R0
SYMATTR InstName U1
SYMBOL cap 656 160 R0
SYMATTR InstName C1
SYMATTR Value {Cboot}
SYMBOL nmos 880 256 R0
SYMATTR InstName M1
SYMATTR Value NDS355AN
SYMBOL res 656 240 R0
SYMATTR InstName R3
SYMATTR Value {Rout_L}
SYMBOL nmos 880 16 R0
SYMATTR InstName M2
SYMATTR Value NDS355AN
SYMBOL res 736 80 R0
SYMATTR InstName R4
SYMATTR Value {Rout_H}
SYMBOL voltage 928 -16 R180
WINDOW 0 24 96 Left 2
WINDOW 3 24 16 Left 2
SYMATTR InstName V1
SYMATTR Value 20
SYMBOL voltage -128 176 R0
WINDOW 3 -705 156 Left 2
SYMATTR Value PWL REPEAT FOREVER ((0 3.3) ({{t}-10n} 3.3) ({t} 0) ({2*{t}-10n} 0) ({2*{t}} 3.3)) ENDREPEAT
SYMATTR InstName V2
SYMBOL voltage 16 16 R0
WINDOW 3 -1033 52 Left 2
SYMATTR Value PWL REPEAT FOREVER ((0 0) ({{t}-10n} 0) ({t} 3.3) ({2*{t}-10n} 3.3) ({2*{t}} 0)) ENDREPEAT
SYMATTR InstName V3
SYMBOL voltage 240 320 R0
WINDOW 123 0 0 Left 0
WINDOW 39 0 0 Left 0
SYMATTR InstName V4
SYMATTR Value 3.3
SYMBOL voltage 336 320 R0
SYMATTR InstName V5
SYMATTR Value 20
SYMBOL res 1248 176 R90
WINDOW 0 0 56 VBottom 2
WINDOW 3 32 56 VTop 2
SYMATTR InstName R5
SYMATTR Value 2
SYMBOL ind 1376 176 R90
WINDOW 0 5 56 VBottom 2
WINDOW 3 32 56 VTop 2
SYMATTR InstName L1
SYMATTR Value 3.33e-5
SYMBOL cap 1472 176 R90
WINDOW 0 0 32 VBottom 2
WINDOW 3 32 32 VTop 2
SYMATTR InstName C2
SYMATTR Value 2.6325e-10
SYMBOL cap 1344 272 R90
WINDOW 0 0 32 VBottom 2
WINDOW 3 32 32 VTop 2
SYMATTR InstName C3
SYMATTR Value 1.3e-9
TEXT -512 440 Left 2 !.tran 0 100e-6 0 1e-9
TEXT 1216 -216 Left 2 !.param Rout_H=50 Rout_L=50 Rin_H=50 Rin_L=50 Cboot=1e-6
RECTANGLE Normal 1568 400 1088 80 2
