Version 4
SHEET 1 1636 1108
WIRE 944 128 240 128
WIRE 240 256 240 128
WIRE 944 256 944 128
WIRE 192 336 -64 336
WIRE 896 336 816 336
WIRE 240 784 240 352
WIRE 944 784 944 352
WIRE -64 864 -64 336
WIRE 192 864 -64 864
WIRE 816 864 816 336
WIRE 896 864 816 864
WIRE -64 944 -64 864
WIRE 816 960 816 864
WIRE 240 1088 240 880
WIRE 944 1088 944 880
FLAG 240 1088 0
FLAG 944 1088 0
FLAG -64 944 0
FLAG 816 960 0
SYMBOL nmos 192 256 R0
SYMATTR InstName M1
SYMATTR Value NDS355AN
SYMBOL nmos 192 784 R0
SYMATTR InstName M2
SYMATTR Value NDS355AN
SYMBOL nmos 896 256 R0
SYMATTR InstName M3
SYMATTR Value NDS355AN
SYMBOL nmos 896 784 R0
SYMATTR InstName M4
SYMATTR Value NDS355AN
SYMBOL 1EDN8550 -336 160 R180
SYMATTR InstName U1
SYMBOL 1EDN8550 -336 688 R180
SYMATTR InstName U2
SYMBOL 1EDN8550 1376 -16 R0
SYMATTR InstName U3
SYMBOL 1EDN8550 1392 688 R0
SYMATTR InstName U4
TEXT -376 912 Left 2 !.tran 0 1 0 1e-9
