Version 4
SHEET 1 2196 992
WIRE -160 -576 -192 -576
WIRE 64 -576 -80 -576
WIRE 128 -576 64 -576
WIRE 192 -576 128 -576
WIRE 352 -576 320 -576
WIRE 464 -576 432 -576
WIRE 608 -576 464 -576
WIRE 720 -576 608 -576
WIRE 848 -576 720 -576
WIRE 128 -544 128 -576
WIRE 192 -544 128 -544
WIRE 384 -512 320 -512
WIRE 384 -496 384 -512
WIRE 464 -496 464 -512
WIRE 464 -496 384 -496
WIRE 608 -496 464 -496
WIRE 464 -464 464 -496
WIRE 256 -432 256 -496
WIRE -192 -192 -208 -192
WIRE 48 -192 -112 -192
WIRE 112 -192 48 -192
WIRE 176 -192 112 -192
WIRE 336 -192 304 -192
WIRE 448 -192 416 -192
WIRE 512 -192 448 -192
WIRE 640 -192 512 -192
WIRE 816 -192 640 -192
WIRE 640 -176 640 -192
WIRE -1040 -160 -1184 -160
WIRE 112 -160 112 -192
WIRE 176 -160 112 -160
WIRE 368 -128 304 -128
WIRE 368 -112 368 -128
WIRE 448 -112 448 -128
WIRE 448 -112 368 -112
WIRE 512 -112 448 -112
WIRE -1184 -48 -1184 -160
WIRE -1040 -48 -1184 -48
WIRE 240 -48 240 -112
WIRE -1184 64 -1184 -48
WIRE -1184 64 -1248 64
WIRE -1040 64 -1184 64
WIRE -208 144 -224 144
WIRE 0 144 -128 144
WIRE 64 144 0 144
WIRE 128 144 64 144
WIRE 288 144 256 144
WIRE 400 144 368 144
WIRE 464 144 400 144
WIRE 624 144 464 144
WIRE 768 144 624 144
WIRE -1184 176 -1184 64
WIRE -1040 176 -1184 176
WIRE 64 176 64 144
WIRE 128 176 64 176
WIRE 1728 192 1344 192
WIRE 1856 192 1728 192
WIRE 320 208 256 208
WIRE 1728 208 1728 192
WIRE 320 224 320 208
WIRE 400 224 400 208
WIRE 400 224 320 224
WIRE 464 224 400 224
WIRE 400 256 400 224
WIRE -1184 272 -1184 176
WIRE -1040 272 -1184 272
WIRE 1344 272 1344 192
WIRE 1456 272 1344 272
WIRE 1616 272 1584 272
WIRE 1728 272 1728 256
WIRE 1728 272 1696 272
WIRE 1856 272 1728 272
WIRE 1952 272 1856 272
WIRE 2048 272 1952 272
WIRE 192 288 192 224
WIRE 1952 288 1952 272
WIRE 1456 304 1424 304
WIRE 1600 304 1584 304
WIRE 1952 352 1952 336
WIRE -144 528 -160 528
WIRE 48 528 -64 528
WIRE 112 528 48 528
WIRE 176 528 112 528
WIRE 336 528 304 528
WIRE 448 528 416 528
WIRE 544 528 448 528
WIRE 704 528 544 528
WIRE 816 528 704 528
WIRE 112 560 112 528
WIRE 176 560 112 560
WIRE 368 592 304 592
WIRE 368 608 368 592
WIRE 448 608 448 592
WIRE 448 608 368 608
WIRE 544 608 448 608
WIRE 48 752 48 592
WIRE 240 912 240 608
FLAG -1040 -160 Vcc_135_dram
FLAG -1040 -48 Vcc_250_aux
FLAG -1040 64 Vcc_330_core
FLAG -1040 176 Vcc_120_FPGA
FLAG -1040 272 Vcc_135_dram
FLAG -1248 144 0
FLAG -192 -576 Vcc_135_dram
FLAG -208 -192 Vcc_250_aux
FLAG -224 144 Vcc_330_core
FLAG -160 528 Vcc_120_FPGA
FLAG 48 -128 0
FLAG 240 -48 0
FLAG 512 -32 0
FLAG 64 -512 0
FLAG 256 -432 0
FLAG 464 -384 0
FLAG 0 208 0
FLAG 192 288 0
FLAG 400 336 0
FLAG 48 752 0
FLAG 240 912 0
FLAG 544 688 0
FLAG 720 -512 0
FLAG 640 -112 0
FLAG 624 208 0
FLAG 704 592 0
FLAG 816 608 0
FLAG 768 224 0
FLAG 816 -112 0
FLAG 848 -496 0
FLAG 1856 112 0
FLAG 1952 352 0
FLAG 2048 352 0
FLAG 1424 304 0
FLAG 1376 240 0
FLAG 1600 384 0
SYMBOL TLV62569P_TRANS 240 -160 R0
SYMATTR InstName U2
SYMBOL voltage -1248 48 R0
WINDOW 123 0 0 Left 0
WINDOW 39 0 0 Left 0
SYMATTR InstName V1
SYMATTR Value 5
SYMBOL cap 32 -192 R0
SYMATTR InstName C1
SYMATTR Value 4.7µF
SYMBOL res 496 -208 R0
SYMATTR InstName R1
SYMATTR Value 316e3
SYMBOL ind 432 -208 R90
WINDOW 0 5 56 VBottom 2
WINDOW 3 32 56 VTop 2
SYMATTR InstName L1
SYMATTR Value 2.2µH
SYMBOL cap 432 -192 R0
WINDOW 3 -38 56 Left 2
SYMATTR InstName C2
SYMATTR Value 6.8e-12
SYMBOL res 496 -128 R0
WINDOW 3 46 72 Left 2
SYMATTR InstName R2
SYMATTR Value 100e3
SYMBOL TLV62569P_TRANS 256 -544 R0
SYMATTR InstName U1
SYMBOL cap 48 -576 R0
SYMATTR InstName C3
SYMATTR Value 4.7µF
SYMBOL res 592 -592 R0
SYMATTR InstName R3
SYMATTR Value 124e3
SYMBOL ind 448 -592 R90
WINDOW 0 5 56 VBottom 2
WINDOW 3 32 56 VTop 2
SYMATTR InstName L2
SYMATTR Value 2.2µH
SYMBOL cap 448 -576 R0
WINDOW 3 -16 40 Left 2
SYMATTR InstName C4
SYMATTR Value 6.8e-12
SYMBOL res 448 -480 R0
SYMATTR InstName R4
SYMATTR Value 100e3
SYMBOL TLV62569P_TRANS 192 176 R0
SYMATTR InstName U3
SYMBOL cap -16 144 R0
SYMATTR InstName C5
SYMATTR Value 4.7µF
SYMBOL res 448 128 R0
SYMATTR InstName R5
SYMATTR Value 210e3
SYMBOL ind 384 128 R90
WINDOW 0 5 56 VBottom 2
WINDOW 3 32 56 VTop 2
SYMATTR InstName L3
SYMATTR Value 2.2µH
SYMBOL cap 384 144 R0
WINDOW 3 -16 40 Left 2
SYMATTR InstName C6
SYMATTR Value 6.8e-12
SYMBOL res 384 240 R0
SYMATTR InstName R6
SYMATTR Value 47e3
SYMBOL TLV62569P_TRANS 240 560 R0
SYMATTR InstName U4
SYMBOL cap 32 528 R0
SYMATTR InstName C7
SYMATTR Value 4.7µF
SYMBOL res 528 512 R0
SYMATTR InstName R7
SYMATTR Value 100e3
SYMBOL ind 432 512 R90
WINDOW 0 5 56 VBottom 2
WINDOW 3 32 56 VTop 2
SYMATTR InstName L4
SYMATTR Value 2.2µH
SYMBOL cap 432 528 R0
WINDOW 3 -4 62 Left 2
SYMATTR InstName C8
SYMATTR Value 6.8e-12
SYMBOL res 528 592 R0
SYMATTR InstName R8
SYMATTR Value 100e3
SYMBOL ind -224 160 R270
WINDOW 0 46 56 VTop 2
WINDOW 3 5 56 VBottom 2
SYMATTR InstName L5
SYMATTR Value 10nH
SYMBOL ind -160 544 R270
WINDOW 0 32 56 VTop 2
WINDOW 3 5 56 VBottom 2
SYMATTR InstName L6
SYMATTR Value 10nH
SYMBOL ind -208 -176 R270
WINDOW 0 32 56 VTop 2
WINDOW 3 5 56 VBottom 2
SYMATTR InstName L7
SYMATTR Value 10nH
SYMBOL ind -176 -560 R270
WINDOW 0 32 56 VTop 2
WINDOW 3 5 56 VBottom 2
SYMATTR InstName L8
SYMATTR Value 10nH
SYMBOL res 800 512 R0
SYMATTR InstName R9
SYMATTR Value {R_LOAD}
SYMBOL res 752 128 R0
SYMATTR InstName R10
SYMATTR Value {R_LOAD}
SYMBOL res 800 -208 R0
SYMATTR InstName R11
SYMATTR Value {R_LOAD}
SYMBOL res 832 -592 R0
SYMATTR InstName R12
SYMATTR Value {R_LOAD}
SYMBOL cap 704 -576 R0
SYMATTR InstName C9
SYMATTR Value 10µF
SYMBOL cap 624 -176 R0
WINDOW 3 32 47 Left 2
SYMATTR InstName C10
SYMATTR Value 10µF
SYMBOL cap 640 208 R180
WINDOW 0 24 56 Left 2
WINDOW 3 24 8 Left 2
SYMATTR InstName C11
SYMATTR Value 10µF
SYMBOL cap 688 528 R0
WINDOW 3 45 43 Left 2
SYMATTR InstName C12
SYMATTR Value 10µF
SYMBOL TLV62569P_ORIG 1520 272 R0
SYMATTR InstName U5
SYMBOL ind 1712 256 R90
WINDOW 0 5 56 VBottom 2
WINDOW 3 32 56 VTop 2
SYMATTR InstName L9
SYMATTR Value 2.2µH
SYMBOL cap 1712 192 R0
WINDOW 3 -78 11 Left 2
SYMATTR InstName C13
SYMATTR Value 6.8e-12
SYMBOL res 1840 176 R0
SYMATTR InstName R13
SYMATTR Value 210e3
SYMBOL res 1840 96 R0
SYMATTR InstName R14
SYMATTR Value 47e3
SYMBOL cap 1968 352 R180
WINDOW 0 24 56 Left 2
WINDOW 3 24 8 Left 2
SYMATTR InstName C14
SYMATTR Value 10µF
SYMBOL res 2032 256 R0
SYMATTR InstName R15
SYMATTR Value {R_LOAD}
SYMBOL voltage 1472 240 R90
WINDOW 123 0 0 Left 0
WINDOW 39 0 0 Left 0
SYMATTR InstName V2
SYMATTR Value 5
SYMBOL voltage 1600 288 R0
WINDOW 123 0 0 Left 0
WINDOW 39 0 0 Left 0
SYMATTR InstName V3
SYMATTR Value 5
TEXT -752 744 Left 2 !.tran 0 1e-4 0
TEXT 928 80 Left 2 !.param R_LOAD=10
