Version 4
SHEET 1 880 876
WIRE 288 -64 224 -64
WIRE 416 -64 288 -64
WIRE 288 -48 288 -64
WIRE 416 -32 416 -64
WIRE 288 32 288 16
WIRE -208 80 -528 80
WIRE 224 80 224 -64
WIRE 224 80 -32 80
WIRE 224 96 224 80
WIRE -432 112 -448 112
WIRE -288 112 -352 112
WIRE -208 112 -224 112
WIRE 32 112 -32 112
WIRE -208 144 -272 144
WIRE 160 144 -32 144
WIRE -448 160 -448 112
WIRE -416 160 -448 160
WIRE -272 160 -272 144
WIRE -272 160 -336 160
WIRE -208 176 -240 176
WIRE 16 176 -32 176
WIRE 224 192 224 176
WIRE 240 192 224 192
WIRE 304 192 240 192
WIRE 464 192 368 192
WIRE 640 192 464 192
WIRE -448 208 -448 160
WIRE -240 208 -240 176
WIRE 16 208 16 176
WIRE 240 208 240 192
WIRE 160 256 160 144
WIRE 640 272 640 192
WIRE 368 304 368 192
WIRE 464 320 464 192
WIRE -528 336 -528 80
WIRE 160 336 -528 336
WIRE 240 336 240 304
WIRE 240 336 160 336
WIRE 240 352 240 336
WIRE 160 368 160 336
WIRE 640 432 640 352
WIRE 160 448 160 432
WIRE 240 448 240 432
WIRE 240 448 160 448
WIRE 160 464 160 448
WIRE -272 496 -272 160
WIRE 368 496 368 384
WIRE 368 496 -272 496
WIRE 464 496 464 384
FLAG 112 112 0
FLAG -448 208 0
FLAG -240 208 0
FLAG 16 208 0
FLAG 160 464 0
FLAG 640 432 0
FLAG 416 48 0
FLAG 288 32 0
FLAG 464 496 0
SYMBOL ind 240 192 R180
WINDOW 0 -52 89 Left 2
WINDOW 3 -76 62 Left 2
SYMATTR InstName L1
SYMATTR Value 10µH
SYMBOL res 16 128 R270
WINDOW 0 100 56 VTop 2
WINDOW 3 99 58 VBottom 2
SYMATTR InstName R1
SYMATTR Value 40k
SYMBOL diode 304 208 R270
WINDOW 0 32 32 VTop 2
WINDOW 3 0 32 VBottom 2
SYMATTR InstName D1
SYMBOL cap 448 320 R0
SYMATTR InstName C_out
SYMATTR Value 100µF
SYMBOL res 352 288 R0
SYMATTR InstName R2
SYMATTR Value 60k
SYMBOL res -320 144 R90
WINDOW 0 86 79 VBottom 2
WINDOW 3 33 81 VTop 2
SYMATTR InstName R3
SYMATTR Value 20k
SYMBOL cap 144 368 R0
WINDOW 3 -83 34 Left 2
SYMATTR Value 0.01µF
SYMATTR InstName C2
SYMBOL res 224 336 R0
SYMATTR InstName R4
SYMATTR Value 0.025
SYMBOL cap -224 96 R90
WINDOW 0 -59 59 VBottom 2
WINDOW 3 -60 59 VTop 2
SYMATTR InstName C3
SYMATTR Value 22nF
SYMBOL res -336 96 R90
WINDOW 0 43 133 VBottom 2
WINDOW 3 -13 125 VTop 2
SYMATTR InstName R5
SYMATTR Value 4.7k
SYMBOL res 624 256 R0
SYMATTR InstName R6
SYMATTR Value 20
SYMBOL voltage 416 -48 R0
WINDOW 123 0 0 Left 0
WINDOW 39 0 0 Left 0
SYMATTR InstName V1
SYMATTR Value 3.3
SYMBOL cap 272 -48 R0
SYMATTR InstName C_in
SYMATTR Value 100µF
SYMBOL ZZZ\\MOS\\IRF\\NMOSFET\\irf7807 208 256 R0
SYMATTR InstName U3
SYMBOL LM3478_TRANS -128 128 R0
SYMATTR InstName U2
TEXT -528 512 Left 2 !.tran 0 10e-3 0 100e-9
